opendss/carga_mt.dss
new load.UCMT_925b9b0c36c40a81729261a9dc27688c70e76a7ece05f2a1ca0dcbc7947e52ff phases=3 model=1 bus=84891355001992.1.2.3 kv=13.8 kw=112.0 daily=MT-Tipo4 vminpu=0.85
new load.UCMT_9e2e41b9e505b6417376c2f0f41f194dfa291f7ee6f9ec5897302831900bb123 phases=3 model=1 bus=80471645007257.1.2.3 kv=13.8 kw=112.0 daily=MT-Tipo2 vminpu=0.85
new load.UCMT_4194fac70d64f9b4ad32ca16472e00bda0676d7d336e3110590896158a9f7acb phases=3 model=1 bus=87251635001991.1.2.3 kv=13.8 kw=112.0 daily=MT-Tipo1 vminpu=0.85
new load.UCMT_b9358dd6714fd3b52835225bdf67480564c4e59fa4396171198e5cf51b963f8d phases=3 model=1 bus=85021265002413.1.2.3 kv=13.8 kw=75.0 daily=MT-Tipo8 vminpu=0.85
new load.UCMT_e1a1933e36c11ecbf0b92eec701bbf76c4f34e935a26bcc692ff09df0e582911 phases=3 model=1 bus=86998135001993.1.2.3 kv=13.8 kw=2750.0 daily=MT-Tipo7 vminpu=0.85
new load.UCMT_16500c075f8358f9260cf34c60e5e4aed30f73ac6250bf339cb2d6ace7c8cefe phases=3 model=1 bus=85965855001993.1.2.3 kv=13.8 kw=225.0 daily=MT-Tipo2 vminpu=0.85
new load.UCMT_54b794bd2c65b39a6024f923e658e8887668ac7bc1128c2a45b43e4143ebaad6 phases=3 model=1 bus=90897565002413.1.2.3 kv=13.8 kw=300.0 daily=MT-Tipo2 vminpu=0.85
new load.UCMT_75ddb8013093d9a5c29005422fd32a97af2ed3b1117b3235cabd4da7dffdec51 phases=3 model=1 bus=82368075002409.1.2.3 kv=13.8 kw=150.0 daily=MT-Tipo2 vminpu=0.85
new load.UCMT_81f35c01f8ad29ed0514386b48f50af5299c6a21bd43862e52dbd62e992ecf5d phases=3 model=1 bus=97549675007259.1.2.3 kv=13.8 kw=4000.0 daily=MT-Tipo7 vminpu=0.85
new load.UCMT_15639ce96a8df7718e3ad951a3520ad221944d14524894c72aae4d0f89a1584b phases=3 model=1 bus=85353535002412.1.2.3 kv=13.8 kw=225.0 daily=MT-Tipo8 vminpu=0.85
new load.UCMT_9e63c4603f75eebc239e0c8ad6329fff5f34adea68a188dc0e0cd5ac6a18843d phases=3 model=1 bus=86285525002228.1.2.3 kv=13.8 kw=150.0 daily=MT-Tipo2 vminpu=0.85
new load.UCMT_5467771b4d19438e6ca154d5cfa5101c35d1a08752d16558824c0b98c6ecebc1 phases=3 model=1 bus=86543955001993.1.2.3 kv=13.8 kw=225.0 daily=MT-Tipo7 vminpu=0.85
new load.UCMT_be8305fe49204b14b72444ae7ae9b4e118760ba5e48f921450fe1dff71ccc057 phases=3 model=1 bus=87054205001992.1.2.3 kv=13.8 kw=150.0 daily=MT-Tipo7 vminpu=0.85
new load.UCMT_abd04942f7e1a3072130425704bd81b62b06f3324921fa4207f06b42d329d15e phases=3 model=1 bus=87521215002410.1.2.3 kv=13.8 kw=225.0 daily=MT-Tipo9 vminpu=0.85
new load.UCMT_fdc56a472347b0ac69fd02b18d1988339e6bf25ca3c1a6e29667fd263c1addda phases=3 model=1 bus=86977465008497.1.2.3 kv=13.8 kw=112.0 daily=MT-Tipo4 vminpu=0.85
new load.UCMT_8a909d170288134c65ca58fd295d95f47f14a53aa0ac894aa651aed41d0e6a09 phases=3 model=1 bus=80438075001990.1.2.3 kv=13.8 kw=225.0 daily=MT-Tipo9 vminpu=0.85
new load.UCMT_08efdd4775532cddde3b38919190e690b30b126682280e4a9dd5df974865c937 phases=3 model=1 bus=86875835002410.1.2.3 kv=13.8 kw=300.0 daily=MT-Tipo4 vminpu=0.85
new load.UCMT_fb371db5707f15fea02ea4d22c2c9a87496a63c043b0b5df0c270299395708bd phases=3 model=1 bus=91150805001995.1.2.3 kv=13.8 kw=150.0 daily=MT-Tipo7 vminpu=0.85
new load.UCMT_c3489f007090a6bb85064e7c65aa371631d5b53120ab15c535050c7ab6c79281 phases=3 model=1 bus=80547705008497.1.2.3 kv=13.8 kw=112.0 daily=MT-Tipo5 vminpu=0.85
new load.UCMT_9a9ae02aacc437f1b571155eeb2767d7b45dcbcc57336c1dd5ac3d751e5eac4b phases=3 model=1 bus=87158825008498.1.2.3 kv=13.8 kw=150.0 daily=MT-Tipo7 vminpu=0.85
new load.UCMT_a57d19caa9b69d5f7967f109ab81230987b2b5dd6e14fde0843bc7a3c9426108 phases=3 model=1 bus=80468475001993.1.2.3 kv=13.8 kw=112.0 daily=MT-Tipo8 vminpu=0.85
new load.UCMT_5f80241229db8fae3f2cf18a36afbbb602ac075e191575e9dee79cbf229c1df6 phases=3 model=1 bus=87173425008500.1.2.3 kv=13.8 kw=225.0 daily=MT-Tipo4 vminpu=0.85
new load.UCMT_673f6722961fdd2930e6abd7303caa3b38cc187138cb73612d182c2da39c2746 phases=3 model=1 bus=81758875007258.1.2.3 kv=13.8 kw=225.0 daily=MT-Tipo8 vminpu=0.85
new load.UCMT_461dc8e544e2043d83d739d9fb942dd27bccdd13f4de0b806651bb33897d78e3 phases=3 model=1 bus=87301575007258.1.2.3 kv=13.8 kw=112.0 daily=MT-Tipo6 vminpu=0.85
new load.UCMT_39ba4363e96ccd175688cc6556a9382f09745d35c89212c5ea89ab35140e7b96 phases=3 model=1 bus=87301535001996.1.2.3 kv=13.8 kw=225.0 daily=MT-Tipo8 vminpu=0.85
new load.UCMT_dca5f5f3e47252468f253857f9e30b6f6763c95d22530f7f90e9b5fb96227120 phases=3 model=1 bus=87301655001996.1.2.3 kv=13.8 kw=300.0 daily=MT-Tipo8 vminpu=0.85
new load.UCMT_43705f87f1bf04e934eac60435841747f7816b84625765de9e10d53bd79e7da9 phases=3 model=1 bus=87307075001993.1.2.3 kv=13.8 kw=2500.0 daily=MT-Tipo2 vminpu=0.85
new load.UCMT_393dc10045b46fefdcc8701e70142ccb33e335f254b019fb34de85de994dfd08 phases=3 model=1 bus=87229015001990.1.2.3 kv=13.8 kw=225.0 daily=MT-Tipo6 vminpu=0.85
new load.UCMT_47551b6c048912bd2d6743ef2f9eea265c61a7492abca4d1a8e43502c43150d7 phases=3 model=1 bus=87368205008497.1.2.3 kv=13.8 kw=112.0 daily=MT-Tipo7 vminpu=0.85
new load.UCMT_90248f0555005f815f9ef5e643ffc915abc0c4895a42a4083fa349c87c87de5d phases=3 model=1 bus=87497835002148.1.2.3 kv=13.8 kw=225.0 daily=MT-Tipo2 vminpu=0.85
new load.UCMT_c82664db980103e96cdf3fcc034adabdf547877e88fa4d2a4e695c5b0c27edfb phases=3 model=1 bus=87522395002210.1.2.3 kv=13.8 kw=150.0 daily=MT-Tipo2 vminpu=0.85
new load.UCMT_aa00af9be206cb6d3b5acc03b12fe54245dd25fe2de4ccd9f65786e4596d8344 phases=3 model=1 bus=86967755001992.1.2.3 kv=13.8 kw=1000.0 daily=MT-Tipo4 vminpu=0.85
new load.UCMT_6e70419d7b51cce5b99184f005e2c4ea77c8034247abb70250de289391dc3f15 phases=3 model=1 bus=87570595001990.1.2.3 kv=13.8 kw=112.0 daily=MT-Tipo4 vminpu=0.85
new load.UCMT_a2121fff5024d24f226574fcf01f099da368a584c950bc61499538601be0ee0d phases=3 model=1 bus=85965855001993.1.2.3 kv=13.8 kw=225.0 daily=MT-Tipo8 vminpu=0.85
new load.UCMT_3448e77c29c77a818f6cc2e0ceba20624f243458dce5411977678ae47c1b6032 phases=3 model=1 bus=85889525008497.1.2.3 kv=13.8 kw=112.0 daily=MT-Tipo4 vminpu=0.85
new load.UCMT_cef37aa489f9c8b098113605b6b2d6b1054b1c17f2dde2f14691f4986bdc6a00 phases=3 model=1 bus=87842615002148.1.2.3 kv=13.8 kw=150.0 daily=MT-Tipo6 vminpu=0.85
new load.UCMT_1fefda45b545ef39386ab0a80d3a6b6cede64eeeabdaefb9bf513c73e6cae4d8 phases=3 model=1 bus=87710645002409.1.2.3 kv=13.8 kw=500.0 daily=MT-Tipo2 vminpu=0.85
new load.UCMT_371982f1c65f43d94b9fa9fb557e15e006328ae881d3762932cdf0f419db5ebf phases=3 model=1 bus=80446045001991.1.2.3 kv=13.8 kw=600.0 daily=MT-Tipo4 vminpu=0.85
new load.UCMT_d590dbd410679616c46c704bbd42ed1c23ce347b5933f61fd634ec02425b1cf9 phases=3 model=1 bus=87956035002148.1.2.3 kv=13.8 kw=150.0 daily=MT-Tipo2 vminpu=0.85
new load.UCMT_20be9476948a21cc440a509e557f0ad133ab44990b3b9f1e415333b13191c108 phases=3 model=1 bus=86263975001996.1.2.3 kv=13.8 kw=225.0 daily=MT-Tipo2 vminpu=0.85
new load.UCMT_5526aa6e368409d1693fb9522e00fcd3701357968b43eb064aea8edb75cf107e phases=3 model=1 bus=87998225002210.1.2.3 kv=13.8 kw=225.0 daily=MT-Tipo2 vminpu=0.85
new load.UCMT_28cf67f2f107e04fbab6e64dcc578e0391d35af225be020786e47fbcda5b0a08 phases=3 model=1 bus=88049745007257.1.2.3 kv=13.8 kw=225.0 daily=MT-Tipo8 vminpu=0.85
new load.UCMT_cab1f526928420aad8d80548c5dcb525f8a85d0e556050921b1a8d74f211bf41 phases=3 model=1 bus=88106925001995.1.2.3 kv=13.8 kw=150.0 daily=MT-Tipo8 vminpu=0.85
new load.UCMT_a68dac45a6e0c2a99683c1ff6d264dd91ab7bcdd5720f83af9deb0092c877334 phases=3 model=1 bus=88110555002148.1.2.3 kv=13.8 kw=300.0 daily=MT-Tipo8 vminpu=0.85
new load.UCMT_f515ed8227634be78e747bda71a101f66a14c66d734eef6754cbf39fc2056ed8 phases=3 model=1 bus=88188575002412.1.2.3 kv=13.8 kw=150.0 daily=MT-Tipo2 vminpu=0.85
new load.UCMT_08d6bc2780bf6c79dff701aaff94e01d7ca73ecb79cc1ff8e55da752ffa5a952 phases=3 model=1 bus=91150805001995.1.2.3 kv=13.8 kw=150.0 daily=MT-Tipo4 vminpu=0.85
new load.UCMT_d53f587e19145a5980a5fd6113b277a4560fd607ee1b115669381184aca64bf3 phases=3 model=1 bus=88406705002210.1.2.3 kv=13.8 kw=112.0 daily=MT-Tipo2 vminpu=0.85
new load.UCMT_7f8c8acd1e7fe9232f9fc5aafda5bba8a468fc23b99766ab204352c09a534d3f phases=3 model=1 bus=88343565002210.1.2.3 kv=13.8 kw=300.0 daily=MT-Tipo6 vminpu=0.85
new load.UCMT_6a6a6727ba0a5d6ef8ccc2c4cd020be3511b848b1a797e9551de4000c45ef972 phases=3 model=1 bus=88162595002412.1.2.3 kv=13.8 kw=1750.0 daily=MT-Tipo6 vminpu=0.85
new load.UCMT_1ee7c63a13e616f2a56f0f79bd3e96430334d142dc8fb11e9a3084f0d5801b88 phases=3 model=1 bus=88426435002188.1.2.3 kv=13.8 kw=300.0 daily=MT-Tipo2 vminpu=0.85
new load.UCMT_2c4c21860aa370c42382be1da84a270a138f6839698151ed418d7c117606621b phases=3 model=1 bus=88617285001996.1.2.3 kv=13.8 kw=300.0 daily=MT-Tipo2 vminpu=0.85
new load.UCMT_81fe54b5b48503d42f2ffc548ac1ee19bbd8ca4cd2011fbfcd9f0c53feb062a2 phases=3 model=1 bus=88536335007257.1.2.3 kv=13.8 kw=150.0 daily=MT-Tipo8 vminpu=0.85
new load.UCMT_e2732f1f5dfe22857cb47a5c0e6c53367770107c80c7d0a0a0fc470a15cac518 phases=3 model=1 bus=84559845002413.1.2.3 kv=13.8 kw=150.0 daily=MT-Tipo2 vminpu=0.85
new load.UCMT_a7f0a3b6b67b118344dc0c0043dc2955bf624aab4af4102dcf777fade6ee7b86 phases=3 model=1 bus=90065945002414.1.2.3 kv=13.8 kw=300.0 daily=MT-Tipo8 vminpu=0.85
new load.UCMT_2dd65d50bddb40c6c30f905ee2088f3dd8d04ed8c400822e532c062920dc745e phases=3 model=1 bus=89170165002414.1.2.3 kv=13.8 kw=500.0 daily=MT-Tipo4 vminpu=0.85
new load.UCMT_5cca84c96c4a83fc375687333371b8b74b99d2cf83b42bb362331427c4928543 phases=3 model=1 bus=89099365001996.1.2.3 kv=13.8 kw=750.0 daily=MT-Tipo8 vminpu=0.85
new load.UCMT_eb2a5ce1ed980b11c7bee5a99dc593faa5d6673fd3935f0daa03924d89e2d240 phases=3 model=1 bus=89099495001991.1.2.3 kv=13.8 kw=225.0 daily=MT-Tipo8 vminpu=0.85
new load.UCMT_2263e6b43b142bc654813f67e458a8e2cc56a9dd226148903bc23a48b90d8066 phases=3 model=1 bus=89099685002228.1.2.3 kv=13.8 kw=225.0 daily=MT-Tipo10 vminpu=0.85
new load.UCMT_14a202d20a48ec7ef3b9f738e72f8ee47f558ea3b2fe3f6ab3a756b3346ce8d4 phases=3 model=1 bus=88745835002210.1.2.3 kv=13.8 kw=150.0 daily=MT-Tipo4 vminpu=0.85
new load.UCMT_87b9f0e8ea4a0f9dca67ac3f957d8f91de2edb90864d5e36385c38d7a9a80bf9 phases=3 model=1 bus=80533955002210.1.2.3 kv=13.8 kw=112.0 daily=MT-Tipo1 vminpu=0.85
new load.UCMT_f0a04d476497273bbdc4d49a317ecf0a23c16074d000aa4ef28eac9132a09cf3 phases=3 model=1 bus=88754235002210.1.2.3 kv=13.8 kw=150.0 daily=MT-Tipo4 vminpu=0.85
new load.UCMT_6d5762d3a8d720d9b3caf49568367014441a812d119ed389fd76b3f45fe5fae8 phases=3 model=1 bus=89176315002210.1.2.3 kv=13.8 kw=150.0 daily=MT-Tipo10 vminpu=0.85
new load.UCMT_1032443e52fe46bc44598f297fd94cd0beb9fa398b7f40eccbbdac7473c87f60 phases=3 model=1 bus=91138725001996.1.2.3 kv=13.8 kw=225.0 daily=MT-Tipo4 vminpu=0.85
new load.UCMT_9a897918107fb66b585491b43cd78b18674648d7ffe0764b842af6c9edaccb3d phases=3 model=1 bus=88835485002412.1.2.3 kv=13.8 kw=225.0 daily=MT-Tipo2 vminpu=0.85
new load.UCMT_e5d0dd4dd021594f7d2663a040e72be520177a6dd73c6fb4884152c2e6408676 phases=3 model=1 bus=88765725007258.1.2.3 kv=13.8 kw=2000.0 daily=MT-Tipo8 vminpu=0.85
new load.UCMT_98d3a9cacf1ed04a2c3617916bddab1015ac1af34178fc7aafb836764c1834d8 phases=3 model=1 bus=91147635001995.1.2.3 kv=13.8 kw=112.0 daily=MT-Tipo4 vminpu=0.85
new load.UCMT_92daba7c94a61b2eb119506fce93a4d46c29eed1c2bdeedf4da1eb118dd580ed phases=3 model=1 bus=89142545002413.1.2.3 kv=13.8 kw=112.0 daily=MT-Tipo4 vminpu=0.85
new load.UCMT_72aea94f52b0edba1a9255dc0ce529c0d48f1db1e4aa92ebbfae2fb996a31388 phases=3 model=1 bus=86285895002414.1.2.3 kv=13.8 kw=75.0 daily=MT-Tipo2 vminpu=0.85
new load.UCMT_a4567f76b0f8413f53bdc928c3aaa64bbf04781c5fb48694e5f5787bbc4fecf7 phases=3 model=1 bus=89177385002211.1.2.3 kv=13.8 kw=112.0 daily=MT-Tipo4 vminpu=0.85
new load.UCMT_e0cb2b8bab3d7460dc63d7eeb4e75f59eca1bf15878d526a9b1ab9c3b0b32ee4 phases=3 model=1 bus=89185375002211.1.2.3 kv=13.8 kw=112.0 daily=MT-Tipo4 vminpu=0.85
new load.UCMT_7aa0753a2fcd5b66555025c86eca581641db49415df22e667f100f09066715c8 phases=3 model=1 bus=89220295001992.1.2.3 kv=13.8 kw=225.0 daily=MT-Tipo8 vminpu=0.85
new load.UCMT_d991f83f0f87661c15e82cd2a6d56aeeb7a45dc10ade876ff5b8afbdb35a3d84 phases=3 model=1 bus=89181185002413.1.2.3 kv=13.8 kw=150.0 daily=MT-Tipo2 vminpu=0.85
new load.UCMT_f0737ae5b92338028781e546d1a68bbccce6a9912ef00ba90faf7a5d89c181e0 phases=3 model=1 bus=83935975002414.1.2.3 kv=13.8 kw=112.0 daily=MT-Tipo10 vminpu=0.85
new load.UCMT_9fa0ea6d654502701419ce07cd6fd6771d68f9872dd5766c8f9bd402f54ac8bf phases=3 model=1 bus=91184765002413.1.2.3 kv=13.8 kw=500.0 daily=MT-Tipo6 vminpu=0.85
new load.UCMT_125ed4fce92d5dbe6c6f82b023cd8101f76cba0dbfda0c8b7df897451f97d715 phases=3 model=1 bus=89178735008500.1.2.3 kv=13.8 kw=500.0 daily=MT-Tipo2 vminpu=0.85
new load.UCMT_663ae7760eaa3ea4277bf5fb5ad5dfc276d8ae7a5d5e2b9a96db9728ab8daac8 phases=3 model=1 bus=89356155002412.1.2.3 kv=13.8 kw=112.0 daily=MT-Tipo4 vminpu=0.85
new load.UCMT_cb0b8adca215ff6959889907e36dd18722365124c6b7474fd948e211f6e592bb phases=3 model=1 bus=89442335002413.1.2.3 kv=13.8 kw=112.0 daily=MT-Tipo4 vminpu=0.85
new load.UCMT_8680e5cfa4e9af9e060f9199b5c9f5ec2955e00e7c52a466ea3ceb5a6b056de6 phases=3 model=1 bus=89399745002210.1.2.3 kv=13.8 kw=112.0 daily=MT-Tipo4 vminpu=0.85
new load.UCMT_1b989296e8f6cdd0deea16f6c205029fb8817aa2aca8e88bbe939a5a1576af12 phases=3 model=1 bus=89458345002409.1.2.3 kv=13.8 kw=112.0 daily=MT-Tipo2 vminpu=0.85
new load.UCMT_abecb76b0fc5a5ae991a16c3d9541989a7935c33dad88d51f32230a79da0ec8f phases=3 model=1 bus=89845095001996.1.2.3 kv=13.8 kw=225.0 daily=MT-Tipo10 vminpu=0.85
new load.UCMT_1845b51effbb174da241d65bb5a79c05d6cb3c2f1020881f3532ace11c9a3880 phases=3 model=1 bus=89475795002409.1.2.3 kv=13.8 kw=112.0 daily=MT-Tipo8 vminpu=0.85
new load.UCMT_f325a0bf397b6aadf30a9d17e88bfd9e645b164d7fc45547be3bd826b7ddd275 phases=3 model=1 bus=80535625002210.1.2.3 kv=13.8 kw=500.0 daily=MT-Tipo6 vminpu=0.85
new load.UCMT_a46bbeaa0005f4c24a3e8a407e448e80f603b178fcabd5915467a1fd8c5e1637 phases=3 model=1 bus=89596615001992.1.2.3 kv=13.8 kw=500.0 daily=MT-Tipo6 vminpu=0.85
new load.UCMT_29fc10c9af166d48fdeeb4f5ed6805d14426ea9e51b06014d09009b4971de6fb phases=3 model=1 bus=88993395002210.1.2.3 kv=13.8 kw=1000.0 daily=MT-Tipo3 vminpu=0.85
new load.UCMT_d13720e683a2c9776e4ca1a9b533876947d4186714eddcba08d376cb78015f7c phases=3 model=1 bus=98381835001993.1.2.3 kv=13.8 kw=1000.0 daily=MT-Tipo2 vminpu=0.85
new load.UCMT_557c82a73d5e8d856cf05b6b81da7b4bd1fed00299c2e0b91eff5ef6936169fb phases=3 model=1 bus=80515605001998.1.2.3 kv=13.8 kw=500.0 daily=MT-Tipo2 vminpu=0.85
new load.UCMT_0feb8a23063c3fe7c859c548b003f056849c9bada344b26efc61aac6af7e6e23 phases=3 model=1 bus=80535625002210.1.2.3 kv=13.8 kw=500.0 daily=MT-Tipo4 vminpu=0.85
new load.UCMT_9f8b10697d795fa0eb77fd9731501a4b8a02751fab8d219ceb89905b975effa8 phases=3 model=1 bus=80485285001996.1.2.3 kv=13.8 kw=1750.0 daily=MT-Tipo6 vminpu=0.85
new load.UCMT_e20b95d4a28bccfb36d455c5e91be59765365131075da215a641c3a54ec837ab phases=3 model=1 bus=89864285002409.1.2.3 kv=13.8 kw=150.0 daily=MT-Tipo6 vminpu=0.85
new load.UCMT_019a59cfdfcf41bfa36ac7320cf5db775da629398cb2b4fb7351a27a7f1b6f85 phases=3 model=1 bus=86973305001991.1.2.3 kv=13.8 kw=300.0 daily=MT-Tipo2 vminpu=0.85
new load.UCMT_ef7620d92e9e08b6e255f8fa2e32c38cbdcb4dc7861a6ad30f871ff82bb6365f phases=3 model=1 bus=88970035001992.1.2.3 kv=13.8 kw=225.0 daily=MT-Tipo2 vminpu=0.85
new load.UCMT_7f16ab6298e92e7d05a7d1c7a963b34b804d781660c14e1803ec7eb2bb194d53 phases=3 model=1 bus=80444335001991.1.2.3 kv=13.8 kw=112.0 daily=MT-Tipo1 vminpu=0.85
new load.UCMT_73e1b229f80eb441893afabb7f98406f60d6b31d1dd8e82d667c484dfae44437 phases=3 model=1 bus=88013475001990.1.2.3 kv=13.8 kw=4500.0 daily=MT-Tipo7 vminpu=0.85
new load.UCMT_859881c179c5e3c405e11648a39fbb162aa5cd18efd84c68aaf2202302a05313 phases=3 model=1 bus=89727325008500.1.2.3 kv=13.8 kw=300.0 daily=MT-Tipo2 vminpu=0.85
new load.UCMT_a9049afa838a2f5e0f9d90b509362a24199e66480f7de6d1acb1065deba26e74 phases=3 model=1 bus=89814605001992.1.2.3 kv=13.8 kw=150.0 daily=MT-Tipo10 vminpu=0.85
new load.UCMT_f8f7b21b9f033badef08fc8b0dafb34a0fe65a1e64e1b220af89ca3ba862e5d4 phases=3 model=1 bus=88970035001992.1.2.3 kv=13.8 kw=225.0 daily=MT-Tipo6 vminpu=0.85
new load.UCMT_8a4e668983ea16788aeb50c87df2dbf5ef94066681772004ad331d61a7e9c47a phases=3 model=1 bus=80481915001995.1.2.3 kv=13.8 kw=300.0 daily=MT-Tipo3 vminpu=0.85
new load.UCMT_2aade1b575760ef8e45b0c8e88d34954f3825403db16fce13813ac22f1588f50 phases=3 model=1 bus=90065955002414.1.2.3 kv=13.8 kw=4000.0 daily=MT-Tipo6 vminpu=0.85
new load.UCMT_28137ac18e71d694e88c2003251108ed03b80a7d188c3c15256556e70740506d phases=3 model=1 bus=90067335002413.1.2.3 kv=13.8 kw=112.0 daily=MT-Tipo8 vminpu=0.85
new load.UCMT_e5e361a8a2ca0a40fac69083ed9181b90686bf8d444201a24695a6035485bb34 phases=3 model=1 bus=90204795008497.1.2.3 kv=13.8 kw=225.0 daily=MT-Tipo6 vminpu=0.85
new load.UCMT_22a31dd514e3d8e3a20715f956f4bf4b29b7835ed8742764d3b61c197c903f0e phases=3 model=1 bus=80546095008497.1.2.3 kv=13.8 kw=112.0 daily=MT-Tipo1 vminpu=0.85
new load.UCMT_0ca5863349eca8a537751a923b2bea5209621bf001a0c23db1500c7f695fa70f phases=3 model=1 bus=90148085001996.1.2.3 kv=13.8 kw=500.0 daily=MT-Tipo6 vminpu=0.85
new load.UCMT_3f1e4e0ef5e930811a77fea9827e6de38095e168b5c30a32b6ce16505c933aa1 phases=3 model=1 bus=90148085001996.1.2.3 kv=13.8 kw=500.0 daily=MT-Tipo10 vminpu=0.85
new load.UCMT_3164eeb1dd343b33a514febbacc705e9a1c5eeda734259aa14aeb591426bc227 phases=3 model=1 bus=90148085001996.1.2.3 kv=13.8 kw=500.0 daily=MT-Tipo10 vminpu=0.85
new load.UCMT_51821559181c33e0822cdce62a37be1c2b16e22a803da89729ef7c1c5d57c608 phases=3 model=1 bus=88343565002210.1.2.3 kv=13.8 kw=300.0 daily=MT-Tipo6 vminpu=0.85
new load.UCMT_027e7d59fdc9f7fd9b0ad57282e4ab5bf75496dc8036421f0b132245066e7056 phases=3 model=1 bus=90285945002211.1.2.3 kv=13.8 kw=300.0 daily=MT-Tipo6 vminpu=0.85
new load.UCMT_ba22dc045e0e1d8bd96e2c27f8b6cc6034970ce64be0737422638a208773890e phases=3 model=1 bus=90286295001998.1.2.3 kv=13.8 kw=500.0 daily=MT-Tipo3 vminpu=0.85
new load.UCMT_90c53f6f4bfca83a740b1dd689192d27607e498a39c062128600070667c16d72 phases=3 model=1 bus=97691725002210.1.2.3 kv=13.8 kw=112.0 daily=MT-Tipo2 vminpu=0.85
new load.UCMT_5bcaccd0f2c771aa7ea5e7f38e7c57fbeca573949b17159684ab65cf87a24da2 phases=3 model=1 bus=82371825002409.1.2.3 kv=13.8 kw=100.0 daily=MT-Tipo1 vminpu=0.85
new load.UCMT_207591f43daf8cbbe905ae8de1c8cca77138a4b97588c805919890e052b022a5 phases=3 model=1 bus=80438035001990.1.2.3 kv=13.8 kw=225.0 daily=MT-Tipo1 vminpu=0.85
new load.UCMT_672b644900f89b7671b4fed6128d60544058a537fe250a68e203963e445a1041 phases=3 model=1 bus=90384075007257.1.2.3 kv=13.8 kw=750.0 daily=MT-Tipo3 vminpu=0.85
new load.UCMT_d9cad298e35e3116819bbfa55987e2989d09015388207abaddb9a7f09f4bdac2 phases=3 model=1 bus=90429105007258.1.2.3 kv=13.8 kw=500.0 daily=MT-Tipo10 vminpu=0.85
new load.UCMT_afa2032635b99d847b5e5f917d8d9c1502ed520a08bff165ea9bf41f4a17eafb phases=3 model=1 bus=90426485002228.1.2.3 kv=13.8 kw=150.0 daily=MT-Tipo10 vminpu=0.85
new load.UCMT_b4d3ced1f1c0d55f2ba5447d77e80b8fe218c362f316a1f6c03287318d335119 phases=3 model=1 bus=90592005002412.1.2.3 kv=13.8 kw=150.0 daily=MT-Tipo6 vminpu=0.85
new load.UCMT_17049e011037c773c9d80d2ea545a1606dafbb3fd3c19615c4dc111e135bf75d phases=3 model=1 bus=90583285002410.1.2.3 kv=13.8 kw=225.0 daily=MT-Tipo6 vminpu=0.85
new load.UCMT_decf2da5e1b6b6f282af4fba941579eff3f33c511835ce4782e0d7415c594841 phases=3 model=1 bus=90552245001992.1.2.3 kv=13.8 kw=150.0 daily=MT-Tipo10 vminpu=0.85
new load.UCMT_b4650d7a94c51d0a12efb0e580e081fd25e607466ae6300fa68a376ca36eb778 phases=3 model=1 bus=90625215007258.1.2.3 kv=13.8 kw=225.0 daily=MT-Tipo3 vminpu=0.85
new load.UCMT_badc3d5facc2d284b5762b412777ef5a1867c6c38425c20974b9fbedfabf0b0c phases=3 model=1 bus=90606675002409.1.2.3 kv=13.8 kw=225.0 daily=MT-Tipo3 vminpu=0.85
new load.UCMT_818527ec728d823d71b5720a0982c6be7c6aab76c22905474146fa995b52f506 phases=3 model=1 bus=90599025001990.1.2.3 kv=13.8 kw=150.0 daily=MT-Tipo3 vminpu=0.85
new load.UCMT_2f7759866461bf31adf1f3a4bd2d54623788709e2354b34e797b2f0d495d78f1 phases=3 model=1 bus=90678245001991.1.2.3 kv=13.8 kw=225.0 daily=MT-Tipo10 vminpu=0.85
new load.UCMT_6539a39b6675a85894b89f2c7e924dfea74d988fc5ec99abb19a838e66210865 phases=3 model=1 bus=90599635001991.1.2.3 kv=13.8 kw=112.0 daily=MT-Tipo6 vminpu=0.85
new load.UCMT_05e4e7fb18d4d545fa3ffaf1720bdf8796bab0fd4e00e0ccf8c08bc2c7a2b446 phases=3 model=1 bus=90705325008497.1.2.3 kv=13.8 kw=225.0 daily=MT-Tipo6 vminpu=0.85
new load.UCMT_e0fb4e8f12a7ade41066ae94bb84044cd6c89c4ea250af54b258e027b45c18b4 phases=3 model=1 bus=98381835001993.1.2.3 kv=13.8 kw=1000.0 daily=MT-Tipo6 vminpu=0.85
new load.UCMT_94c9a195851532f571d2e9e9249e0555eafda7a7881e45b1d35fbe1f6f16f604 phases=3 model=1 bus=98381835001993.1.2.3 kv=13.8 kw=1000.0 daily=MT-Tipo6 vminpu=0.85
new load.UCMT_33ebae0b99de53f012793f017037a3872ad47f77a106d6643b0ecfe269eb6e63 phases=3 model=1 bus=98381835001993.1.2.3 kv=13.8 kw=1000.0 daily=MT-Tipo6 vminpu=0.85
new load.UCMT_1ca5abb9b0e1a9a46c65a1621372084f32af8782f2072bdfffa354b4a62e17fe phases=3 model=1 bus=89692625002188.1.2.3 kv=13.8 kw=150.0 daily=MT-Tipo6 vminpu=0.85
new load.UCMT_e6917607bbb23e810c8cad7c5ae277e779fe2e590196c0393b73e9515b771d0d phases=3 model=1 bus=90739125001998.1.2.3 kv=13.8 kw=150.0 daily=MT-Tipo6 vminpu=0.85
new load.UCMT_deca8c7e6251ede4eb216a7589a09ae8bc58463a93a780fb8ce670aec127fa9c phases=3 model=1 bus=90883745001996.1.2.3 kv=13.8 kw=1000.0 daily=MT-Tipo6 vminpu=0.85
new load.UCMT_612b334f15320ebb392e3866f26df7cbc8f6d1cb67d315e3c1e46085403395f8 phases=3 model=1 bus=90883745001996.1.2.3 kv=13.8 kw=1000.0 daily=MT-Tipo6 vminpu=0.85
new load.UCMT_4e133abb6b73a68f96c00492162b01b4d296dd4f4491892ac424ad45806bc61e phases=3 model=1 bus=90863425001991.1.2.3 kv=13.8 kw=500.0 daily=MT-Tipo6 vminpu=0.85
new load.UCMT_8d26967f28e92625eab7a3d5418a5a145df71532b4b638f014bc66b7e76150f8 phases=3 model=1 bus=91659885002413.1.2.3 kv=13.8 kw=225.0 daily=MT-Tipo6 vminpu=0.85
new load.UCMT_4e15b4461d5e1bbe52e93faae6fb3afc2d60d94f7426e63ae044c1605d6a7f00 phases=3 model=1 bus=91063765007258.1.2.3 kv=13.8 kw=150.0 daily=MT-Tipo6 vminpu=0.85
new load.UCMT_650b1aa757e07f5a43d906252c49f8b5e8080c56bf82aa0ea01094a810f4883c phases=3 model=1 bus=91066595001990.1.2.3 kv=13.8 kw=7187.0 daily=MT-Tipo6 vminpu=0.85
new load.UCMT_b1de7de7677e648c93dfd91873a14ab8166ff4a8f399ef779c0488ca27477769 phases=3 model=1 bus=90975485001993.1.2.3 kv=13.8 kw=500.0 daily=MT-Tipo10 vminpu=0.85
new load.UCMT_bce680d811c394f9375ad565a6a11ffbcd00d24d3ef66c1dc628405348856204 phases=3 model=1 bus=82278545002413.1.2.3 kv=13.8 kw=3250.0 daily=MT-Tipo6 vminpu=0.85
new load.UCMT_5edfdc0d58d391e18f02d632b9a9eb3954a6357e00ff33415661396f917647b2 phases=3 model=1 bus=91218025002210.1.2.3 kv=13.8 kw=150.0 daily=MT-Tipo10 vminpu=0.85
new load.UCMT_36b345aaae21242de3bd320d62ac594059980e949487747de1f3716547b958d9 phases=3 model=1 bus=91113155001992.1.2.3 kv=13.8 kw=225.0 daily=MT-Tipo7 vminpu=0.85
new load.UCMT_8acd08ed95114a9a98fa903d0255e0adb1194ba25ab1576ba187400c1e036a4f phases=3 model=1 bus=91229055001992.1.2.3 kv=13.8 kw=225.0 daily=MT-Tipo6 vminpu=0.85
new load.UCMT_2462018af4b8ddd3083f87a8f5ffbe96352e5d64040aa80c7234e77fa20319f6 phases=3 model=1 bus=91194825002414.1.2.3 kv=13.8 kw=5500.0 daily=MT-Tipo3 vminpu=0.85
new load.UCMT_8010072dd8539a71bfaf7e18a3149fbe817cb64b2bb6907fd2cf7e55b6f0671a phases=3 model=1 bus=91511705007257.1.2.3 kv=13.8 kw=300.0 daily=MT-Tipo3 vminpu=0.85
new load.UCMT_c390ee9940443527128e6d4c14eac258ccfd91f6eb194e68c69b13fe0e1d7212 phases=3 model=1 bus=91613885001991.1.2.3 kv=13.8 kw=150.0 daily=MT-Tipo3 vminpu=0.85
new load.UCMT_241295525674dc00b113d9ef85766950547a336741415601884ba6d69a8bb78e phases=3 model=1 bus=91344975007257.1.2.3 kv=13.8 kw=500.0 daily=MT-Tipo3 vminpu=0.85
new load.UCMT_85e68e0a21babe3ae53782ab62ee8cc14d2095c76f7816669be2151560a742ea phases=3 model=1 bus=91344975007257.1.2.3 kv=13.8 kw=500.0 daily=MT-Tipo10 vminpu=0.85
new load.UCMT_14bfde8a9dcfbe98cbbac8ab630f3438ae08f47fca0ec4dd08d4d1c6cd040553 phases=3 model=1 bus=91247765002210.1.2.3 kv=13.8 kw=300.0 daily=MT-Tipo3 vminpu=0.85
new load.UCMT_542fbb4ae633ddc0d6db72449dfed369bdae14fb490b22a857fdcf328b2ec64d phases=3 model=1 bus=91659885002413.1.2.3 kv=13.8 kw=225.0 daily=MT-Tipo10 vminpu=0.85
new load.UCMT_cda3c6d8e57aa0fca25b72fc84147418e0d1145b72e564498ecc1560352d0b54 phases=3 model=1 bus=91982855002210.1.2.3 kv=13.8 kw=150.0 daily=MT-Tipo3 vminpu=0.85
new load.UCMT_78e351a2c6aa66d60faa8055173212c4f233a66d6b543bce58c9a2f5c6b777eb phases=3 model=1 bus=91982855002210.1.2.3 kv=13.8 kw=150.0 daily=MT-Tipo6 vminpu=0.85
new load.UCMT_514646b3c812c4425c88311bd276e02c7a322c999ebfd2d2549012f2e4aa4200 phases=3 model=1 bus=86998135001993.1.2.3 kv=13.8 kw=2750.0 daily=MT-Tipo10 vminpu=0.85
new load.UCMT_b278f66e08311b16ef2eb1568a01445fff8869800b3ae3a6eed39f9a0ea8cf59 phases=3 model=1 bus=92513105002410.1.2.3 kv=13.8 kw=500.0 daily=MT-Tipo10 vminpu=0.85
new load.UCMT_10c17d707711ba64406301486704e86b0a9f6700b2dced6fe77081817912ff16 phases=3 model=1 bus=92036645002413.1.2.3 kv=13.8 kw=750.0 daily=MT-Tipo10 vminpu=0.85
new load.UCMT_541393339afb63182e90981c8a15daedb439d03ea4041338a2881c2a544ba1fe phases=3 model=1 bus=93308415001995.1.2.3 kv=13.8 kw=1000.0 daily=MT-Tipo6 vminpu=0.85
new load.UCMT_e7909b010cb088c9f236e2ab4d86069d6f7a8e5047698d712a8c90e24ee0d96e phases=3 model=1 bus=92424105007257.1.2.3 kv=13.8 kw=500.0 daily=MT-Tipo3 vminpu=0.85
new load.UCMT_8d76e879e0c275d6045c965c5a05cfb58dcda04e76aa93728937d15f126bd1b1 phases=3 model=1 bus=98042805001993.1.2.3 kv=13.8 kw=2000.0 daily=MT-Tipo6 vminpu=0.85
new load.UCMT_9c05517a5ff676f037ab6b490da994fd6e7ab7b6e7fb95deb44538c165af67a4 phases=3 model=1 bus=92230985002211.1.2.3 kv=13.8 kw=500.0 daily=MT-Tipo6 vminpu=0.85
new load.UCMT_6f9079fcfedd74f049d6b9ee404df8d5a28ac79e3704c23782385dfd9c74a796 phases=3 model=1 bus=91244545007257.1.2.3 kv=13.8 kw=112.0 daily=MT-Tipo10 vminpu=0.85
new load.UCMT_f7dd58ae5a6f9166650393e06e2446949742c86cfbd5a2f6219c9f9fd1190509 phases=3 model=1 bus=92891685001993.1.2.3 kv=13.8 kw=75.0 daily=MT-Tipo10 vminpu=0.85
new load.UCMT_ea8e84dc6fba2c1d949bd9ae272960e857e8de412525b73f08ffb3b192c9a147 phases=3 model=1 bus=80501075001993.1.2.3 kv=13.8 kw=150.0 daily=MT-Tipo6 vminpu=0.85
new load.UCMT_435ce48e5070c1ee256448907508c68a85161140c24ccf64002eb8146b73dcbf phases=3 model=1 bus=80477255001991.1.2.3 kv=13.8 kw=150.0 daily=MT-Tipo6 vminpu=0.85
new load.UCMT_82d4bcd02aa8e4563c2ca94eb3fcfe7f48de6fcbc162db2de00bffd440e17d0a phases=3 model=1 bus=82278545002413.1.2.3 kv=13.8 kw=3250.0 daily=MT-Tipo3 vminpu=0.85
new load.UCMT_61b14a3e90dc4a3c6cbb243ff41fd63ad38a9fa9a2627cf1cde84583ae2e3fe8 phases=3 model=1 bus=80477455001991.1.2.3 kv=13.8 kw=225.0 daily=MT-Tipo3 vminpu=0.85
new load.UCMT_b05d531608bf3234b4ed79035dbea208d9a067077f6713294b97732e8135b9a1 phases=3 model=1 bus=94434055001998.1.2.3 kv=13.8 kw=300.0 daily=MT-Tipo6 vminpu=0.85
new load.UCMT_7163a31f9f96f2702974bdbbf58c486c66282118232ec6b77ff93a526d1c78b6 phases=3 model=1 bus=80500995001993.1.2.3 kv=13.8 kw=75.0 daily=MT-Tipo10 vminpu=0.85
new load.UCMT_1b0078385c2df5f6e34a9ee9a9bbcaaa71f0b7d0405bb515df91fa4365515da7 phases=3 model=1 bus=85302445001993.1.2.3 kv=13.8 kw=300.0 daily=MT-Tipo6 vminpu=0.85
new load.UCMT_5d3b5d50b157efccb95763a8435609e88f401b028f59cb7bd7c133837e41b46f phases=3 model=1 bus=93348595007259.1.2.3 kv=13.8 kw=225.0 daily=MT-Tipo6 vminpu=0.85
new load.UCMT_5cc7888f364ed94a5271448120e9cd8683525b89ad50bc81fdf7e92288c27a7b phases=3 model=1 bus=83132335002410.1.2.3 kv=13.8 kw=225.0 daily=MT-Tipo1 vminpu=0.85
new load.UCMT_5a51b76e4534d81190e09e092ff0c763d4857a5d4e78c5bfebd97d656c8961a2 phases=3 model=1 bus=93594285008498.1.2.3 kv=13.8 kw=300.0 daily=MT-Tipo6 vminpu=0.85
new load.UCMT_e9a019dd6ba9580f9e849f1093f990718d33e34a8524855314c6a66ee65bc907 phases=3 model=1 bus=91247765002210.1.2.3 kv=13.8 kw=300.0 daily=MT-Tipo6 vminpu=0.85
new load.UCMT_ede3c35720cb8ae5ca3eef289e2bf58b255c074855c97978fc993e625a69265f phases=3 model=1 bus=93594285008498.1.2.3 kv=13.8 kw=300.0 daily=MT-Tipo6 vminpu=0.85
new load.UCMT_fa4d0b8af47ff44fc541145a77a34cea2fb3179e203a8d9b62899ae1ff2253b3 phases=3 model=1 bus=93753555002148.1.2.3 kv=13.8 kw=112.0 daily=MT-Tipo6 vminpu=0.85
new load.UCMT_6d43d821f0370b3ae2e793cd031844407ac8b3e68526559f0440d5ed660b4e4c phases=3 model=1 bus=93746875002412.1.2.3 kv=13.8 kw=112.0 daily=MT-Tipo6 vminpu=0.85
new load.UCMT_8c71709bc33d5f2f728bdc22ad2c9794bda1a85678a319bad0b798ad97f1f891 phases=3 model=1 bus=93795565001992.1.2.3 kv=13.8 kw=150.0 daily=MT-Tipo10 vminpu=0.85
new load.UCMT_7cf1111ac434320536d4ba3f53aa4883c20b4176d0375792b4119c74e500b4aa phases=3 model=1 bus=93716595007258.1.2.3 kv=13.8 kw=150.0 daily=MT-Tipo10 vminpu=0.85
new load.UCMT_2081d4e603ec5e2bb653fe5337891aeff4350146fd2dabbbbb347591f8e1e5ac phases=3 model=1 bus=93893055002210.1.2.3 kv=13.8 kw=112.0 daily=MT-Tipo3 vminpu=0.85
new load.UCMT_00846f5321e6c175318ea8d0c34a5059a04b790a43c1e897575c27920f48d402 phases=3 model=1 bus=94219015002414.1.2.3 kv=13.8 kw=225.0 daily=MT-Tipo3 vminpu=0.85
new load.UCMT_737ba44400e00c9d649e6697e48f63cd0b5a2ccc4c13f26fe20dc796906371b0 phases=3 model=1 bus=95527215002210.1.2.3 kv=13.8 kw=112.0 daily=MT-Tipo3 vminpu=0.85
new load.UCMT_fe12f7980fe213d88e8c51b5a398f735d04fc513475f7ca7e93b33f83f1b92fa phases=3 model=1 bus=94196015002210.1.2.3 kv=13.8 kw=112.0 daily=MT-Tipo6 vminpu=0.85
new load.UCMT_0fdf6b2c5e81986b6c32df14f611624925348ecd05f71b0c0f30354228311f34 phases=3 model=1 bus=94419805002413.1.2.3 kv=13.8 kw=150.0 daily=MT-Tipo6 vminpu=0.85
new load.UCMT_329d7888f465b13b76c7ec60193ef7788e200ee7f5557ba3b0bf1cd5e6ebbaf7 phases=3 model=1 bus=94452775007257.1.2.3 kv=13.8 kw=112.0 daily=MT-Tipo3 vminpu=0.85
new load.UCMT_b5b7f77299e113d4563f4467ab0f545ade35d5692631450d3d251725614e68cd phases=3 model=1 bus=94361495002410.1.2.3 kv=13.8 kw=150.0 daily=MT-Tipo10 vminpu=0.85
new load.UCMT_dafa2d22b3f8dcab4c4b13ec53d7df0e31200df699bbcbb0b1acfaed548ffee6 phases=3 model=1 bus=94230485007258.1.2.3 kv=13.8 kw=750.0 daily=MT-Tipo10 vminpu=0.85
new load.UCMT_81e6f024ea7aa6f2dd53a4b258a35d349f7086052b4309eaa9d1c90d1aaa75a1 phases=3 model=1 bus=94615345007258.1.2.3 kv=13.8 kw=4000.0 daily=MT-Tipo10 vminpu=0.85
new load.UCMT_0425122fa6ef2119ff59c956d81d75ecb662116a99e3ceeb43b4e948ded876ba phases=3 model=1 bus=94529845001993.1.2.3 kv=13.8 kw=150.0 daily=MT-Tipo6 vminpu=0.85
new load.UCMT_79b443f706b941714e976ce31a69ed649d7fc66de7afa81c63ed35a9f58d0687 phases=3 model=1 bus=94998245002412.1.2.3 kv=13.8 kw=112.0 daily=MT-Tipo6 vminpu=0.85
new load.UCMT_b436477131fa660187df721e33b6ff7c41caa76f48b3b40b6477ca444a9c3579 phases=3 model=1 bus=95431535002210.1.2.3 kv=13.8 kw=225.0 daily=MT-Tipo10 vminpu=0.85
new load.UCMT_525e37c5f8184afdb8410d00a2ddbe975f919dc67ce779cf08bd4816b7e7220b phases=3 model=1 bus=95523225002412.1.2.3 kv=13.8 kw=112.0 daily=MT-Tipo10 vminpu=0.85
new load.UCMT_b957db17f79f9dc453b7f266e763050bd85038e4b131137176e369c4668e91cc phases=3 model=1 bus=95494175002412.1.2.3 kv=13.8 kw=112.0 daily=MT-Tipo10 vminpu=0.85
new load.UCMT_ea377494e5c124b77af4a1614cc5faf2ab8de58577d2e590fef85adfb0838013 phases=3 model=1 bus=95522975002409.1.2.3 kv=13.8 kw=150.0 daily=MT-Tipo6 vminpu=0.85
new load.UCMT_f9bec14ef94a22b74fac5d77867f86b75453a0647e1a3fa248cb8a0921d06f26 phases=3 model=1 bus=80485285001996.1.2.3 kv=13.8 kw=1750.0 daily=MT-Tipo6 vminpu=0.85
new load.UCMT_d234cdad0329f9bc563e4a954d66585959c3edd3929fb554804731304bc73c30 phases=3 model=1 bus=80485285001996.1.2.3 kv=13.8 kw=1750.0 daily=MT-Tipo10 vminpu=0.85
new load.UCMT_36ee206acdff14dcfb726826cc694770de947817e268535af189736323c27866 phases=3 model=1 bus=95696155001996.1.2.3 kv=13.8 kw=300.0 daily=MT-Tipo6 vminpu=0.85
new load.UCMT_abbb894a651e2e2c64407f6e56234a91733800c76a80475c36ea0bc4d18a476d phases=3 model=1 bus=95696055002412.1.2.3 kv=13.8 kw=150.0 daily=MT-Tipo3 vminpu=0.85
new load.UCMT_b8e2fc77772ccb6e8c23a23a80d41c8808f95a62620ab7e65ec82040b0d19b3b phases=3 model=1 bus=81762505002410.1.2.3 kv=13.8 kw=225.0 daily=MT-Tipo3 vminpu=0.85
new load.UCMT_61c3501a1c53b607b5d775be3fdc021d8534c7cf75d497b4ef96375d51b13a70 phases=3 model=1 bus=94505955001991.1.2.3 kv=13.8 kw=150.0 daily=MT-Tipo10 vminpu=0.85
new load.UCMT_38145879988120d00c5fbd1c29140bcfd4e45442f4f20a81e61faa1d886bb341 phases=3 model=1 bus=95745555002228.1.2.3 kv=13.8 kw=500.0 daily=MT-Tipo6 vminpu=0.85
new load.UCMT_57a818d049e0538195a0fa908c5fd3c7e5421d6063b1e9d8ba0be792600db5d1 phases=3 model=1 bus=96140085001990.1.2.3 kv=13.8 kw=300.0 daily=MT-Tipo10 vminpu=0.85
new load.UCMT_24897eeb9d07e33b8f6269199bcea666b0e087d34e9b44f991fe80a5b42408a8 phases=3 model=1 bus=96624255002210.1.2.3 kv=13.8 kw=150.0 daily=MT-Tipo3 vminpu=0.85
new load.UCMT_bf696412b7dd26b5fc56911bd80f3c862f6e12a6aedffb4bfd0a8f8d8b48b638 phases=3 model=1 bus=96801195007257.1.2.3 kv=13.8 kw=150.0 daily=MT-Tipo6 vminpu=0.85
new load.UCMT_6da94cd58406a552c2f9616b77d7f3e88929b0b8e99893019040b135e194f471 phases=3 model=1 bus=97161495002412.1.2.3 kv=13.8 kw=150.0 daily=MT-Tipo1 vminpu=0.85
new load.UCMT_5844517b6e6c7f29ea49ecbd6a97f62610f786e7f7bdd33f64b11f8ec014c992 phases=3 model=1 bus=97259155002210.1.2.3 kv=13.8 kw=150.0 daily=MT-Tipo7 vminpu=0.85
new load.UCMT_4f9c7798e859684779345a36b386f6758b46c4f498a8d89cbd28cea62f68437d phases=3 model=1 bus=97549675007259.1.2.3 kv=13.8 kw=4000.0 daily=MT-Tipo4 vminpu=0.85
...
